# File generated by Flopy version 3.3.4 on 01/15/2023 at 05:20:29.
BEGIN options
  TIME_UNITS  days
  START_DATE_TIME  2015-01-01
END options

BEGIN dimensions
  NPER  1
END dimensions

BEGIN perioddata
       1.00000000  1       1.00000000
END perioddata

