# File generated by Flopy version 3.3.4 on 01/15/2023 at 05:20:29.
BEGIN options
END options

BEGIN timing
  TDIS6  mfsim.tdis
END timing

BEGIN models
  gwf6  rockRiver.nam  rockRiver
END models

BEGIN exchanges
END exchanges

BEGIN solutiongroup  1
  ims6  mfsim.ims  rockRiver
END solutiongroup  1

