# File generated by Flopy version 3.3.4 on 01/15/2023 at 05:30:49.
BEGIN options
  LIST  rockriver.list
  PRINT_INPUT
  SAVE_FLOWS
  NEWTON
END options

BEGIN packages
  DIS6  rockRiver.dis  dis
END packages

